psse/psse-model/src/test/resources/IEEE_14_bus_completed_rev35_exported.raw
0,100.0,35,0.0,0.0,60.0
 08/19/93 UW ARCHIVE           100.0  1962 W IEEE 14 Bus Test Case

0 / END OF SYSTEM-WIDE DATA, BEGIN BUS DATA
1,'Bus 1       ',138.0,3,1,1,1,1.06,0.0
2,'Bus 2       ',138.0,2,1,1,1,1.045,-4.9826
3,'Bus 3       ',138.0,2,1,1,1,1.01,-12.725
4,'Bus 4       ',138.0,1,1,1,1,1.01767,-10.3128
5,'Bus 5       ',138.0,1,1,1,1,1.01951,-8.7738
6,'Bus 6       ',138.0,2,1,1,1,1.07,-14.2209
7,'Bus 7       ',138.0,1,1,1,1,1.06152,-13.3596
8,'Bus 8       ',138.0,2,1,1,1,1.09,-13.3596
9,'Bus 9       ',138.0,1,1,1,1,1.05593,-14.9385
10,'Bus 10      ',138.0,1,1,1,1,1.05099,-15.0972
11,'Bus 11      ',138.0,1,1,1,1,1.05691,-14.7906
12,'Bus 12      ',138.0,1,1,1,1,1.05519,-15.0755
13,'Bus 13      ',138.0,1,1,1,1,1.05038,-15.1562
14,'Bus 14      ',138.0,1,1,1,1,1.03553,-16.0336
0 / END OF BUS DATA, BEGIN LOAD DATA
2,'1 ',1,1,1,21.7,12.7,0.0,0.0,0.0,-0.0,1,1
3,'1 ',1,1,1,94.2,19.0,0.0,0.0,0.0,-0.0,1,1
4,'1 ',1,1,1,47.8,-3.9,0.0,0.0,0.0,-0.0,1,1
5,'1 ',1,1,1,7.6,1.6,0.0,0.0,0.0,-0.0,1,1
6,'1 ',1,1,1,11.2,7.5,0.0,0.0,0.0,-0.0,1,1
9,'1 ',1,1,1,29.5,16.6,0.0,0.0,0.0,-0.0,1,1
10,'1 ',1,1,1,9.0,5.8,0.0,0.0,0.0,-0.0,1,1
11,'1 ',1,1,1,3.5,1.8,0.0,0.0,0.0,-0.0,1,1
12,'1 ',1,1,1,6.1,1.6,0.0,0.0,0.0,-0.0,1,1
13,'1 ',1,1,1,13.5,5.8,0.0,0.0,0.0,-0.0,1,1
14,'1 ',1,1,1,14.9,5.0,0.0,0.0,0.0,-0.0,1,1
0 / END OF LOAD DATA, BEGIN FIXED SHUNT DATA
9,' 1',1,0.0,19.0
0 / END OF FIXED SHUNT DATA, BEGIN GENERATOR DATA
1,'1 ',232.392,-16.549,0.0,0.0,1.06,0,0,615.0,0.0,1.0,0.0,0.0,1.0,1,100.0,10000.0,-10000.0,0,1,1.0,0,1.0,0,1.0,0,1.0,0,1.0
2,'1 ',40.0,43.556,50.0,-40.0,1.045,0,0,60.0,0.0,1.0,0.0,0.0,1.0,1,100.0,10000.0,-10000.0,0,1,1.0,0,1.0,0,1.0,0,1.0,0,1.0
3,'1 ',0.0,25.075,40.0,0.0,1.01,0,0,60.0,0.0,1.0,0.0,0.0,1.0,1,100.0,10000.0,-10000.0,0,1,1.0,0,1.0,0,1.0,0,1.0,0,1.0
6,'1 ',0.0,12.73,24.0,-6.0,1.07,0,0,25.0,0.0,1.0,0.0,0.0,1.0,1,100.0,10000.0,-10000.0,0,1,1.0,0,1.0,0,1.0,0,1.0,0,1.0
8,'1 ',0.0,17.623,24.0,-6.0,1.09,0,0,25.0,0.0,1.0,0.0,0.0,1.0,1,100.0,10000.0,-10000.0,0,1,1.0,0,1.0,0,1.0,0,1.0,0,1.0
0 / END OF GENERATOR DATA, BEGIN BRANCH DATA
1,2,'1 ',0.01938,0.05917,0.0528,' ',0.0,0.0,0.0,0.0,0.0,0.0,0.0,0.0,0.0,0.0,0.0,0.0,0.0,0.0,0.0,0.0,1,1,0.0,1,1.0,0,1.0,0,1.0,0,1.0
1,5,'1 ',0.05403,0.22304,0.0492,' ',0.0,0.0,0.0,0.0,0.0,0.0,0.0,0.0,0.0,0.0,0.0,0.0,0.0,0.0,0.0,0.0,1,1,0.0,1,1.0,0,1.0,0,1.0,0,1.0
2,3,'1 ',0.04699,0.19797,0.0438,' ',0.0,0.0,0.0,0.0,0.0,0.0,0.0,0.0,0.0,0.0,0.0,0.0,0.0,0.0,0.0,0.0,1,1,0.0,1,1.0,0,1.0,0,1.0,0,1.0
2,4,'1 ',0.05811,0.17632,0.034,' ',0.0,0.0,0.0,0.0,0.0,0.0,0.0,0.0,0.0,0.0,0.0,0.0,0.0,0.0,0.0,0.0,1,1,0.0,1,1.0,0,1.0,0,1.0,0,1.0
2,5,'1 ',0.05695,0.17388,0.0346,' ',0.0,0.0,0.0,0.0,0.0,0.0,0.0,0.0,0.0,0.0,0.0,0.0,0.0,0.0,0.0,0.0,1,1,0.0,1,1.0,0,1.0,0,1.0,0,1.0
3,4,'1 ',0.06701,0.17103,0.0128,' ',0.0,0.0,0.0,0.0,0.0,0.0,0.0,0.0,0.0,0.0,0.0,0.0,0.0,0.0,0.0,0.0,1,1,0.0,1,1.0,0,1.0,0,1.0,0,1.0
4,5,'1 ',0.01335,0.04211,0.0,' ',0.0,0.0,0.0,0.0,0.0,0.0,0.0,0.0,0.0,0.0,0.0,0.0,0.0,0.0,0.0,0.0,1,1,0.0,1,1.0,0,1.0,0,1.0,0,1.0
6,11,'1 ',0.09498,0.1989,0.0,' ',0.0,0.0,0.0,0.0,0.0,0.0,0.0,0.0,0.0,0.0,0.0,0.0,0.0,0.0,0.0,0.0,1,1,0.0,1,1.0,0,1.0,0,1.0,0,1.0
6,12,'1 ',0.12291,0.25581,0.0,' ',0.0,0.0,0.0,0.0,0.0,0.0,0.0,0.0,0.0,0.0,0.0,0.0,0.0,0.0,0.0,0.0,1,1,0.0,1,1.0,0,1.0,0,1.0,0,1.0
6,13,'1 ',0.06615,0.13027,0.0,' ',0.0,0.0,0.0,0.0,0.0,0.0,0.0,0.0,0.0,0.0,0.0,0.0,0.0,0.0,0.0,0.0,1,1,0.0,1,1.0,0,1.0,0,1.0,0,1.0
7,8,'1 ',0.0,0.17615,0.0,' ',0.0,0.0,0.0,0.0,0.0,0.0,0.0,0.0,0.0,0.0,0.0,0.0,0.0,0.0,0.0,0.0,1,1,0.0,1,1.0,0,1.0,0,1.0,0,1.0
7,9,'1 ',0.0,0.11001,0.0,' ',0.0,0.0,0.0,0.0,0.0,0.0,0.0,0.0,0.0,0.0,0.0,0.0,0.0,0.0,0.0,0.0,1,1,0.0,1,1.0,0,1.0,0,1.0,0,1.0
9,10,'1 ',0.03181,0.0845,0.0,' ',0.0,0.0,0.0,0.0,0.0,0.0,0.0,0.0,0.0,0.0,0.0,0.0,0.0,0.0,0.0,0.0,1,1,0.0,1,1.0,0,1.0,0,1.0,0,1.0
9,14,'1 ',0.12711,0.27038,0.0,' ',0.0,0.0,0.0,0.0,0.0,0.0,0.0,0.0,0.0,0.0,0.0,0.0,0.0,0.0,0.0,0.0,1,1,0.0,1,1.0,0,1.0,0,1.0,0,1.0
10,11,'1 ',0.08205,0.19207,0.0,' ',0.0,0.0,0.0,0.0,0.0,0.0,0.0,0.0,0.0,0.0,0.0,0.0,0.0,0.0,0.0,0.0,1,1,0.0,1,1.0,0,1.0,0,1.0,0,1.0
12,13,'1 ',0.22092,0.19988,0.0,' ',0.0,0.0,0.0,0.0,0.0,0.0,0.0,0.0,0.0,0.0,0.0,0.0,0.0,0.0,0.0,0.0,1,1,0.0,1,1.0,0,1.0,0,1.0,0,1.0
13,14,'1 ',0.17093,0.34802,0.0,' ',0.0,0.0,0.0,0.0,0.0,0.0,0.0,0.0,0.0,0.0,0.0,0.0,0.0,0.0,0.0,0.0,1,1,0.0,1,1.0,0,1.0,0,1.0,0,1.0
0 / END OF BRANCH DATA, BEGIN SYSTEM SWITCHING DEVICE DATA
0 / END OF SYSTEM SWITCHING DEVICE DATA, BEGIN TRANSFORMER DATA
4,7,0,'1 ',1,1,1,0.0,0.0,2,'        ',1,1,1.0,0,1.0,0,1.0,0,1.0
0.0,0.20912,100.0
0.978,0.0,0.0,0.0,0.0,0.0,0.0,0.0,0.0,0.0,0.0,0.0,0.0,0.0,0.0,0,0,0,1.5,0.51,1.5,0.51,159,0,0.0,0.0
1.0,0.0
4,9,0,'1 ',1,1,1,0.0,0.0,2,'        ',1,1,1.0,0,1.0,0,1.0,0,1.0
0.0,0.55618,100.0
0.969,0.0,0.0,0.0,0.0,0.0,0.0,0.0,0.0,0.0,0.0,0.0,0.0,0.0,0.0,0,0,0,1.5,0.51,1.5,0.51,159,0,0.0,0.0
1.0,0.0
5,6,0,'1 ',1,1,1,0.0,0.0,2,'        ',1,1,1.0,0,1.0,0,1.0,0,1.0
0.0,0.25202,100.0
0.932,0.0,0.0,0.0,0.0,0.0,0.0,0.0,0.0,0.0,0.0,0.0,0.0,0.0,0.0,0,0,0,1.5,0.51,1.5,0.51,159,0,0.0,0.0
1.0,0.0
0 / END OF TRANSFORMER DATA, BEGIN AREA DATA
1,2,0.0,999.99,'IEEE14      '
0 / END OF AREA DATA, BEGIN TWO-TERMINAL DC DATA
'EATL P1     ',0,7.365,0.0,500.0,0.0,7.365,0.1,'R',,50,1.0
10,1,17.3,12.7,0.48,21.32,500.0,0.832,1.1,1.2,0.975,0.0125,0,0,0,0,'1 ',0.0
12,1,20.5,18.0,0.48,21.32,240.0,1.7325,1.1419,1.2064,0.8968,0.0129,0,0,0,0,'1 ',0.0
'WATL P1     ',1,5.125,280.0,500.0,0.0,5.125,0.1,'R',,20,1.0
12,1,17.3,12.7,0.44,21.32,500.0,0.832,1.125,1.2,0.975,0.0125,0,0,0,0,'1 ',0.0
14,1,20.5,17.9,0.44,21.32,240.0,1.7325,1.1032,1.2064,0.8968,0.0129,0,0,0,0,'1 ',0.0
0 / END OF TWO-TERMINAL DC DATA, BEGIN VOLTAGE SOURCE CONVERTER DATA
'VDCLINE1',1,0.71,1,0.3204,2,0.3883,3,0.1942,4,0.0971
7,2,2,-209.0,0.95,100.0,0.1,50.0,400.0,1200.0,0.1,100.0,-110.0,7,0,100.0
9,1,1,100.0,0.99,90.0,0.15,40.0,350.0,1200.0,0.15,150.0,-140.0,9,0,100.0
'VDCLINE2',1,0.35,1,0.3705,2,0.3597,3,0.1799,4,0.0899
11,2,1,-100.0,1.0,100.0,0.15,123.0,200.0,1200.0,1.0,200.0,-150.0,11,0,100.0
13,1,1,100.0,1.0,93.0,0.12,98.0,250.0,1250.0,1.0,225.0,-250.0,13,0,99.0
0 / END OF VOLTAGE SOURCE CONVERTER DATA, BEGIN IMPEDANCE CORRECTION DATA
1,-30.0,1.1,0.1,-24.0,1.091,0.0,30.0,1.11,0.0,0.0,0.0,0.0
2,0.6,1.06,0.0,0.7,1.07,0.0,0.8,1.08,0.0,0.9,1.09,0.1,0.0,0.0,0.0
0 / END OF IMPEDANCE CORRECTION DATA, BEGIN MULTI-TERMINAL DC DATA
0 / END OF MULTI-TERMINAL DC DATA, BEGIN MULTI-SECTION LINE DATA
1,2,'&1',2,102,103,104
1,5,'&1',2,121,122,123,124,125,126,127,128,129
0 / END OF MULTI-SECTION LINE DATA, BEGIN ZONE DATA
1,'IEEE 14 '
0 / END OF ZONE DATA, BEGIN INTER-AREA TRANSFER DATA
1,2,'A',1000.0
3,5,'D',2900.0
0 / END OF INTER-AREA TRANSFER DATA, BEGIN OWNER DATA
1,'1'
0 / END OF OWNER DATA, BEGIN FACTS CONTROL DEVICE DATA
'FACTS_DVCE_1',153,0,1,0.0,0.0,1.015,50.0,100.0,0.9263,1.134,,0.0,0.05652,100.0,1,0.0,0.0,0.0,153,0,''
'FACTS_DVCE_2',153,155,1,350.0,40.0,1.015,25.0,9999.0,0.9,1.1,,0.0,0.05,100.0,1,0.0,0.0,0.0,153,0,''
0 / END OF FACTS CONTROL DEVICE DATA, BEGIN SWITCHED SHUNT DATA
0 / END OF SWITCHED SHUNT DATA, BEGIN GNE DEVICE DATA
'GNE-1','boslModel',1,153,0,3,3,3,1,1,153
99.0,100.0,101.0
153,154,155
'A1','A2','A3'
0 / END OF GNE DEVICE DATA, BEGIN INDUCTION MACHINE DATA
0 / END OF INDUCTION MACHINE DATA, BEGIN SUBSTATION DATA
0 / END OF SUBSTATION DATA
Q
